
---------- Begin Simulation Statistics ----------
simSeconds                                   1.737995                       # Number of seconds simulated (Second)
simTicks                                 1737994892067                       # Number of ticks simulated (Tick)
finalTick                                1737994892067                       # Number of ticks from beginning of simulation (restored from checkpoints and never reset) (Tick)
simFreq                                  1000000000000                       # The number of ticks per simulated second ((Tick/Second))
hostSeconds                                    773.55                       # Real time elapsed on the host (Second)
hostTickRate                               2246786852                       # The number of ticks simulated per host second (ticks/s) ((Tick/Second))
hostMemory                                     715500                       # Number of bytes of host memory used (Byte)
simInsts                                   1168332401                       # Number of instructions simulated (Count)
simOps                                     1449066954                       # Number of ops (including micro ops) simulated (Count)
hostInstRate                                  1510357                       # Simulator instruction rate (inst/s) ((Count/Second))
hostOpRate                                    1873275                       # Simulator op (including micro ops) rate (op/s) ((Count/Second))
system.clk_domain.clock                           357                       # Clock period in ticks (Tick)
system.clk_domain.voltage_domain.voltage            1                       # Voltage in Volts (Volt)
system.cpu.numCycles                       4868333031                       # Number of cpu cycles simulated (Cycle)
system.cpu.cpi                               4.166906                       # CPI: cycles per instruction (core level) ((Cycle/Count))
system.cpu.ipc                               0.239986                       # IPC: instructions per cycle (core level) ((Count/Cycle))
system.cpu.numWorkItemsStarted                      0                       # Number of work items this cpu started (Count)
system.cpu.numWorkItemsCompleted                    0                       # Number of work items this cpu completed (Count)
system.cpu.commitStats0.numInsts           1168332936                       # Number of instructions committed (thread level) (Count)
system.cpu.commitStats0.numOps             1449068519                       # Number of ops (including micro ops) committed (thread level) (Count)
system.cpu.commitStats0.numInstsNotNOP              0                       # Number of instructions committed excluding NOPs or prefetches (Count)
system.cpu.commitStats0.numOpsNotNOP                0                       # Number of Ops (including micro ops) Simulated (Count)
system.cpu.commitStats0.cpi                  4.166906                       # CPI: cycles per instruction (thread level) ((Cycle/Count))
system.cpu.commitStats0.ipc                  0.239986                       # IPC: instructions per cycle (thread level) ((Count/Cycle))
system.cpu.commitStats0.numMemRefs                  0                       # Number of memory references committed (Count)
system.cpu.commitStats0.numFpInsts                  0                       # Number of float instructions (Count)
system.cpu.commitStats0.numIntInsts        1335070832                       # Number of integer instructions (Count)
system.cpu.commitStats0.numLoadInsts        269057034                       # Number of load instructions (Count)
system.cpu.commitStats0.numStoreInsts       241582932                       # Number of store instructions (Count)
system.cpu.commitStats0.numVecInsts          28076926                       # Number of vector instructions (Count)
system.cpu.commitStats0.committedInstType::No_OpClass       915141      0.06%      0.06% # Class of committed instruction. (Count)
system.cpu.commitStats0.committedInstType::IntAlu    914872037     63.14%     63.20% # Class of committed instruction. (Count)
system.cpu.commitStats0.committedInstType::IntMult      4410682      0.30%     63.50% # Class of committed instruction. (Count)
system.cpu.commitStats0.committedInstType::IntDiv       679636      0.05%     63.55% # Class of committed instruction. (Count)
system.cpu.commitStats0.committedInstType::FloatAdd      5629210      0.39%     63.94% # Class of committed instruction. (Count)
system.cpu.commitStats0.committedInstType::FloatCmp       304899      0.02%     63.96% # Class of committed instruction. (Count)
system.cpu.commitStats0.committedInstType::FloatCvt            4      0.00%     63.96% # Class of committed instruction. (Count)
system.cpu.commitStats0.committedInstType::FloatMult       194350      0.01%     63.97% # Class of committed instruction. (Count)
system.cpu.commitStats0.committedInstType::FloatMultAcc      3351173      0.23%     64.20% # Class of committed instruction. (Count)
system.cpu.commitStats0.committedInstType::FloatDiv        43621      0.00%     64.21% # Class of committed instruction. (Count)
system.cpu.commitStats0.committedInstType::FloatMisc      2244831      0.15%     64.36% # Class of committed instruction. (Count)
system.cpu.commitStats0.committedInstType::FloatSqrt            0      0.00%     64.36% # Class of committed instruction. (Count)
system.cpu.commitStats0.committedInstType::SimdAdd      1132925      0.08%     64.44% # Class of committed instruction. (Count)
system.cpu.commitStats0.committedInstType::SimdAddAcc            0      0.00%     64.44% # Class of committed instruction. (Count)
system.cpu.commitStats0.committedInstType::SimdAlu      1132929      0.08%     64.52% # Class of committed instruction. (Count)
system.cpu.commitStats0.committedInstType::SimdCmp      1681205      0.12%     64.63% # Class of committed instruction. (Count)
system.cpu.commitStats0.committedInstType::SimdCvt            2      0.00%     64.63% # Class of committed instruction. (Count)
system.cpu.commitStats0.committedInstType::SimdMisc      1835906      0.13%     64.76% # Class of committed instruction. (Count)
system.cpu.commitStats0.committedInstType::SimdMult            0      0.00%     64.76% # Class of committed instruction. (Count)
system.cpu.commitStats0.committedInstType::SimdMultAcc            0      0.00%     64.76% # Class of committed instruction. (Count)
system.cpu.commitStats0.committedInstType::SimdMatMultAcc            0      0.00%     64.76% # Class of committed instruction. (Count)
system.cpu.commitStats0.committedInstType::SimdShift            2      0.00%     64.76% # Class of committed instruction. (Count)
system.cpu.commitStats0.committedInstType::SimdShiftAcc            0      0.00%     64.76% # Class of committed instruction. (Count)
system.cpu.commitStats0.committedInstType::SimdDiv            0      0.00%     64.76% # Class of committed instruction. (Count)
system.cpu.commitStats0.committedInstType::SimdSqrt            0      0.00%     64.76% # Class of committed instruction. (Count)
system.cpu.commitStats0.committedInstType::SimdFloatAdd            0      0.00%     64.76% # Class of committed instruction. (Count)
system.cpu.commitStats0.committedInstType::SimdFloatAlu            0      0.00%     64.76% # Class of committed instruction. (Count)
system.cpu.commitStats0.committedInstType::SimdFloatCmp            0      0.00%     64.76% # Class of committed instruction. (Count)
system.cpu.commitStats0.committedInstType::SimdFloatCvt            0      0.00%     64.76% # Class of committed instruction. (Count)
system.cpu.commitStats0.committedInstType::SimdFloatDiv            0      0.00%     64.76% # Class of committed instruction. (Count)
system.cpu.commitStats0.committedInstType::SimdFloatMisc            0      0.00%     64.76% # Class of committed instruction. (Count)
system.cpu.commitStats0.committedInstType::SimdFloatMult            0      0.00%     64.76% # Class of committed instruction. (Count)
system.cpu.commitStats0.committedInstType::SimdFloatMultAcc            0      0.00%     64.76% # Class of committed instruction. (Count)
system.cpu.commitStats0.committedInstType::SimdFloatMatMultAcc            0      0.00%     64.76% # Class of committed instruction. (Count)
system.cpu.commitStats0.committedInstType::SimdFloatSqrt            0      0.00%     64.76% # Class of committed instruction. (Count)
system.cpu.commitStats0.committedInstType::SimdReduceAdd            0      0.00%     64.76% # Class of committed instruction. (Count)
system.cpu.commitStats0.committedInstType::SimdReduceAlu            0      0.00%     64.76% # Class of committed instruction. (Count)
system.cpu.commitStats0.committedInstType::SimdReduceCmp            0      0.00%     64.76% # Class of committed instruction. (Count)
system.cpu.commitStats0.committedInstType::SimdFloatReduceAdd            0      0.00%     64.76% # Class of committed instruction. (Count)
system.cpu.commitStats0.committedInstType::SimdFloatReduceCmp            0      0.00%     64.76% # Class of committed instruction. (Count)
system.cpu.commitStats0.committedInstType::SimdAes            0      0.00%     64.76% # Class of committed instruction. (Count)
system.cpu.commitStats0.committedInstType::SimdAesMix            0      0.00%     64.76% # Class of committed instruction. (Count)
system.cpu.commitStats0.committedInstType::SimdSha1Hash            0      0.00%     64.76% # Class of committed instruction. (Count)
system.cpu.commitStats0.committedInstType::SimdSha1Hash2            0      0.00%     64.76% # Class of committed instruction. (Count)
system.cpu.commitStats0.committedInstType::SimdSha256Hash            0      0.00%     64.76% # Class of committed instruction. (Count)
system.cpu.commitStats0.committedInstType::SimdSha256Hash2            0      0.00%     64.76% # Class of committed instruction. (Count)
system.cpu.commitStats0.committedInstType::SimdShaSigma2            0      0.00%     64.76% # Class of committed instruction. (Count)
system.cpu.commitStats0.committedInstType::SimdShaSigma3            0      0.00%     64.76% # Class of committed instruction. (Count)
system.cpu.commitStats0.committedInstType::SimdPredAlu            0      0.00%     64.76% # Class of committed instruction. (Count)
system.cpu.commitStats0.committedInstType::Matrix            0      0.00%     64.76% # Class of committed instruction. (Count)
system.cpu.commitStats0.committedInstType::MatrixMov            0      0.00%     64.76% # Class of committed instruction. (Count)
system.cpu.commitStats0.committedInstType::MatrixOP            0      0.00%     64.76% # Class of committed instruction. (Count)
system.cpu.commitStats0.committedInstType::MemRead    269057034     18.57%     83.33% # Class of committed instruction. (Count)
system.cpu.commitStats0.committedInstType::MemWrite    241582932     16.67%    100.00% # Class of committed instruction. (Count)
system.cpu.commitStats0.committedInstType::FloatMemRead            0      0.00%    100.00% # Class of committed instruction. (Count)
system.cpu.commitStats0.committedInstType::FloatMemWrite            0      0.00%    100.00% # Class of committed instruction. (Count)
system.cpu.commitStats0.committedInstType::IprAccess            0      0.00%    100.00% # Class of committed instruction. (Count)
system.cpu.commitStats0.committedInstType::InstPrefetch            0      0.00%    100.00% # Class of committed instruction. (Count)
system.cpu.commitStats0.committedInstType::SimdUnitStrideLoad            0      0.00%    100.00% # Class of committed instruction. (Count)
system.cpu.commitStats0.committedInstType::SimdUnitStrideStore            0      0.00%    100.00% # Class of committed instruction. (Count)
system.cpu.commitStats0.committedInstType::SimdUnitStrideMaskLoad            0      0.00%    100.00% # Class of committed instruction. (Count)
system.cpu.commitStats0.committedInstType::SimdUnitStrideMaskStore            0      0.00%    100.00% # Class of committed instruction. (Count)
system.cpu.commitStats0.committedInstType::SimdStridedLoad            0      0.00%    100.00% # Class of committed instruction. (Count)
system.cpu.commitStats0.committedInstType::SimdStridedStore            0      0.00%    100.00% # Class of committed instruction. (Count)
system.cpu.commitStats0.committedInstType::SimdIndexedLoad            0      0.00%    100.00% # Class of committed instruction. (Count)
system.cpu.commitStats0.committedInstType::SimdIndexedStore            0      0.00%    100.00% # Class of committed instruction. (Count)
system.cpu.commitStats0.committedInstType::SimdWholeRegisterLoad            0      0.00%    100.00% # Class of committed instruction. (Count)
system.cpu.commitStats0.committedInstType::SimdWholeRegisterStore            0      0.00%    100.00% # Class of committed instruction. (Count)
system.cpu.commitStats0.committedInstType::SimdUnitStrideFaultOnlyFirstLoad            0      0.00%    100.00% # Class of committed instruction. (Count)
system.cpu.commitStats0.committedInstType::SimdUnitStrideSegmentedLoad            0      0.00%    100.00% # Class of committed instruction. (Count)
system.cpu.commitStats0.committedInstType::SimdUnitStrideSegmentedStore            0      0.00%    100.00% # Class of committed instruction. (Count)
system.cpu.commitStats0.committedInstType::SimdExt            0      0.00%    100.00% # Class of committed instruction. (Count)
system.cpu.commitStats0.committedInstType::SimdFloatExt            0      0.00%    100.00% # Class of committed instruction. (Count)
system.cpu.commitStats0.committedInstType::SimdConfig            0      0.00%    100.00% # Class of committed instruction. (Count)
system.cpu.commitStats0.committedInstType::total   1449068519                       # Class of committed instruction. (Count)
system.cpu.commitStats0.committedControl::IsControl    232135184                       # Class of control type instructions committed (Count)
system.cpu.commitStats0.committedControl::IsDirectControl    184133202                       # Class of control type instructions committed (Count)
system.cpu.commitStats0.committedControl::IsIndirectControl     48001982                       # Class of control type instructions committed (Count)
system.cpu.commitStats0.committedControl::IsCondControl    131882589                       # Class of control type instructions committed (Count)
system.cpu.commitStats0.committedControl::IsUncondControl    100252595                       # Class of control type instructions committed (Count)
system.cpu.commitStats0.committedControl::IsCall     40340454                       # Class of control type instructions committed (Count)
system.cpu.commitStats0.committedControl::IsReturn     40340449                       # Class of control type instructions committed (Count)
system.cpu.dcache.demandHits::cpu.data      513836706                       # number of demand (read+write) hits (Count)
system.cpu.dcache.demandHits::total         513836706                       # number of demand (read+write) hits (Count)
system.cpu.dcache.overallHits::cpu.data     513836706                       # number of overall hits (Count)
system.cpu.dcache.overallHits::total        513836706                       # number of overall hits (Count)
system.cpu.dcache.demandMisses::cpu.data       590001                       # number of demand (read+write) misses (Count)
system.cpu.dcache.demandMisses::total          590001                       # number of demand (read+write) misses (Count)
system.cpu.dcache.overallMisses::cpu.data       590001                       # number of overall misses (Count)
system.cpu.dcache.overallMisses::total         590001                       # number of overall misses (Count)
system.cpu.dcache.demandMissLatency::cpu.data  13644914136                       # number of demand (read+write) miss ticks (Tick)
system.cpu.dcache.demandMissLatency::total  13644914136                       # number of demand (read+write) miss ticks (Tick)
system.cpu.dcache.overallMissLatency::cpu.data  13644914136                       # number of overall miss ticks (Tick)
system.cpu.dcache.overallMissLatency::total  13644914136                       # number of overall miss ticks (Tick)
system.cpu.dcache.demandAccesses::cpu.data    514426707                       # number of demand (read+write) accesses (Count)
system.cpu.dcache.demandAccesses::total     514426707                       # number of demand (read+write) accesses (Count)
system.cpu.dcache.overallAccesses::cpu.data    514426707                       # number of overall (read+write) accesses (Count)
system.cpu.dcache.overallAccesses::total    514426707                       # number of overall (read+write) accesses (Count)
system.cpu.dcache.demandMissRate::cpu.data     0.001147                       # miss rate for demand accesses (Ratio)
system.cpu.dcache.demandMissRate::total      0.001147                       # miss rate for demand accesses (Ratio)
system.cpu.dcache.overallMissRate::cpu.data     0.001147                       # miss rate for overall accesses (Ratio)
system.cpu.dcache.overallMissRate::total     0.001147                       # miss rate for overall accesses (Ratio)
system.cpu.dcache.demandAvgMissLatency::cpu.data 23126.933914                       # average overall miss latency in ticks ((Tick/Count))
system.cpu.dcache.demandAvgMissLatency::total 23126.933914                       # average overall miss latency in ticks ((Tick/Count))
system.cpu.dcache.overallAvgMissLatency::cpu.data 23126.933914                       # average overall miss latency ((Tick/Count))
system.cpu.dcache.overallAvgMissLatency::total 23126.933914                       # average overall miss latency ((Tick/Count))
system.cpu.dcache.blockedCycles::no_mshrs            0                       # number of cycles access was blocked (Cycle)
system.cpu.dcache.blockedCycles::no_targets            0                       # number of cycles access was blocked (Cycle)
system.cpu.dcache.blockedCauses::no_mshrs            0                       # number of times access was blocked (Count)
system.cpu.dcache.blockedCauses::no_targets            0                       # number of times access was blocked (Count)
system.cpu.dcache.avgBlocked::no_mshrs            nan                       # average number of cycles each access was blocked ((Cycle/Count))
system.cpu.dcache.avgBlocked::no_targets          nan                       # average number of cycles each access was blocked ((Cycle/Count))
system.cpu.dcache.writebacks::writebacks       555784                       # number of writebacks (Count)
system.cpu.dcache.writebacks::total            555784                       # number of writebacks (Count)
system.cpu.dcache.demandMshrMisses::cpu.data       590001                       # number of demand (read+write) MSHR misses (Count)
system.cpu.dcache.demandMshrMisses::total       590001                       # number of demand (read+write) MSHR misses (Count)
system.cpu.dcache.overallMshrMisses::cpu.data       590001                       # number of overall MSHR misses (Count)
system.cpu.dcache.overallMshrMisses::total       590001                       # number of overall MSHR misses (Count)
system.cpu.dcache.demandMshrMissLatency::cpu.data  13223653422                       # number of demand (read+write) MSHR miss ticks (Tick)
system.cpu.dcache.demandMshrMissLatency::total  13223653422                       # number of demand (read+write) MSHR miss ticks (Tick)
system.cpu.dcache.overallMshrMissLatency::cpu.data  13223653422                       # number of overall MSHR miss ticks (Tick)
system.cpu.dcache.overallMshrMissLatency::total  13223653422                       # number of overall MSHR miss ticks (Tick)
system.cpu.dcache.demandMshrMissRate::cpu.data     0.001147                       # mshr miss ratio for demand accesses (Ratio)
system.cpu.dcache.demandMshrMissRate::total     0.001147                       # mshr miss ratio for demand accesses (Ratio)
system.cpu.dcache.overallMshrMissRate::cpu.data     0.001147                       # mshr miss ratio for overall accesses (Ratio)
system.cpu.dcache.overallMshrMissRate::total     0.001147                       # mshr miss ratio for overall accesses (Ratio)
system.cpu.dcache.demandAvgMshrMissLatency::cpu.data 22412.933914                       # average overall mshr miss latency ((Tick/Count))
system.cpu.dcache.demandAvgMshrMissLatency::total 22412.933914                       # average overall mshr miss latency ((Tick/Count))
system.cpu.dcache.overallAvgMshrMissLatency::cpu.data 22412.933914                       # average overall mshr miss latency ((Tick/Count))
system.cpu.dcache.overallAvgMshrMissLatency::total 22412.933914                       # average overall mshr miss latency ((Tick/Count))
system.cpu.dcache.replacements                 589492                       # number of replacements (Count)
system.cpu.dcache.LoadLockedReq.hits::cpu.data           10                       # number of LoadLockedReq hits (Count)
system.cpu.dcache.LoadLockedReq.hits::total           10                       # number of LoadLockedReq hits (Count)
system.cpu.dcache.LoadLockedReq.misses::cpu.data            2                       # number of LoadLockedReq misses (Count)
system.cpu.dcache.LoadLockedReq.misses::total            2                       # number of LoadLockedReq misses (Count)
system.cpu.dcache.LoadLockedReq.missLatency::cpu.data       200634                       # number of LoadLockedReq miss ticks (Tick)
system.cpu.dcache.LoadLockedReq.missLatency::total       200634                       # number of LoadLockedReq miss ticks (Tick)
system.cpu.dcache.LoadLockedReq.accesses::cpu.data           12                       # number of LoadLockedReq accesses(hits+misses) (Count)
system.cpu.dcache.LoadLockedReq.accesses::total           12                       # number of LoadLockedReq accesses(hits+misses) (Count)
system.cpu.dcache.LoadLockedReq.missRate::cpu.data     0.166667                       # miss rate for LoadLockedReq accesses (Ratio)
system.cpu.dcache.LoadLockedReq.missRate::total     0.166667                       # miss rate for LoadLockedReq accesses (Ratio)
system.cpu.dcache.LoadLockedReq.avgMissLatency::cpu.data       100317                       # average LoadLockedReq miss latency ((Tick/Count))
system.cpu.dcache.LoadLockedReq.avgMissLatency::total       100317                       # average LoadLockedReq miss latency ((Tick/Count))
system.cpu.dcache.LoadLockedReq.mshrMisses::cpu.data            2                       # number of LoadLockedReq MSHR misses (Count)
system.cpu.dcache.LoadLockedReq.mshrMisses::total            2                       # number of LoadLockedReq MSHR misses (Count)
system.cpu.dcache.LoadLockedReq.mshrMissLatency::cpu.data       199206                       # number of LoadLockedReq MSHR miss ticks (Tick)
system.cpu.dcache.LoadLockedReq.mshrMissLatency::total       199206                       # number of LoadLockedReq MSHR miss ticks (Tick)
system.cpu.dcache.LoadLockedReq.mshrMissRate::cpu.data     0.166667                       # mshr miss rate for LoadLockedReq accesses (Ratio)
system.cpu.dcache.LoadLockedReq.mshrMissRate::total     0.166667                       # mshr miss rate for LoadLockedReq accesses (Ratio)
system.cpu.dcache.LoadLockedReq.avgMshrMissLatency::cpu.data        99603                       # average LoadLockedReq mshr miss latency ((Tick/Count))
system.cpu.dcache.LoadLockedReq.avgMshrMissLatency::total        99603                       # average LoadLockedReq mshr miss latency ((Tick/Count))
system.cpu.dcache.ReadReq.hits::cpu.data    272121709                       # number of ReadReq hits (Count)
system.cpu.dcache.ReadReq.hits::total       272121709                       # number of ReadReq hits (Count)
system.cpu.dcache.ReadReq.misses::cpu.data       493117                       # number of ReadReq misses (Count)
system.cpu.dcache.ReadReq.misses::total        493117                       # number of ReadReq misses (Count)
system.cpu.dcache.ReadReq.missLatency::cpu.data   7177348626                       # number of ReadReq miss ticks (Tick)
system.cpu.dcache.ReadReq.missLatency::total   7177348626                       # number of ReadReq miss ticks (Tick)
system.cpu.dcache.ReadReq.accesses::cpu.data    272614826                       # number of ReadReq accesses(hits+misses) (Count)
system.cpu.dcache.ReadReq.accesses::total    272614826                       # number of ReadReq accesses(hits+misses) (Count)
system.cpu.dcache.ReadReq.missRate::cpu.data     0.001809                       # miss rate for ReadReq accesses (Ratio)
system.cpu.dcache.ReadReq.missRate::total     0.001809                       # miss rate for ReadReq accesses (Ratio)
system.cpu.dcache.ReadReq.avgMissLatency::cpu.data 14555.062239                       # average ReadReq miss latency ((Tick/Count))
system.cpu.dcache.ReadReq.avgMissLatency::total 14555.062239                       # average ReadReq miss latency ((Tick/Count))
system.cpu.dcache.ReadReq.mshrMisses::cpu.data       493117                       # number of ReadReq MSHR misses (Count)
system.cpu.dcache.ReadReq.mshrMisses::total       493117                       # number of ReadReq MSHR misses (Count)
system.cpu.dcache.ReadReq.mshrMissLatency::cpu.data   6825263088                       # number of ReadReq MSHR miss ticks (Tick)
system.cpu.dcache.ReadReq.mshrMissLatency::total   6825263088                       # number of ReadReq MSHR miss ticks (Tick)
system.cpu.dcache.ReadReq.mshrMissRate::cpu.data     0.001809                       # mshr miss rate for ReadReq accesses (Ratio)
system.cpu.dcache.ReadReq.mshrMissRate::total     0.001809                       # mshr miss rate for ReadReq accesses (Ratio)
system.cpu.dcache.ReadReq.avgMshrMissLatency::cpu.data 13841.062239                       # average ReadReq mshr miss latency ((Tick/Count))
system.cpu.dcache.ReadReq.avgMshrMissLatency::total 13841.062239                       # average ReadReq mshr miss latency ((Tick/Count))
system.cpu.dcache.StoreCondReq.hits::cpu.data           12                       # number of StoreCondReq hits (Count)
system.cpu.dcache.StoreCondReq.hits::total           12                       # number of StoreCondReq hits (Count)
system.cpu.dcache.StoreCondReq.accesses::cpu.data           12                       # number of StoreCondReq accesses(hits+misses) (Count)
system.cpu.dcache.StoreCondReq.accesses::total           12                       # number of StoreCondReq accesses(hits+misses) (Count)
system.cpu.dcache.SwapReq.hits::cpu.data          138                       # number of SwapReq hits (Count)
system.cpu.dcache.SwapReq.hits::total             138                       # number of SwapReq hits (Count)
system.cpu.dcache.SwapReq.misses::cpu.data            1                       # number of SwapReq misses (Count)
system.cpu.dcache.SwapReq.misses::total             1                       # number of SwapReq misses (Count)
system.cpu.dcache.SwapReq.missLatency::cpu.data        85323                       # number of SwapReq miss ticks (Tick)
system.cpu.dcache.SwapReq.missLatency::total        85323                       # number of SwapReq miss ticks (Tick)
system.cpu.dcache.SwapReq.accesses::cpu.data          139                       # number of SwapReq accesses(hits+misses) (Count)
system.cpu.dcache.SwapReq.accesses::total          139                       # number of SwapReq accesses(hits+misses) (Count)
system.cpu.dcache.SwapReq.missRate::cpu.data     0.007194                       # miss rate for SwapReq accesses (Ratio)
system.cpu.dcache.SwapReq.missRate::total     0.007194                       # miss rate for SwapReq accesses (Ratio)
system.cpu.dcache.SwapReq.avgMissLatency::cpu.data        85323                       # average SwapReq miss latency ((Tick/Count))
system.cpu.dcache.SwapReq.avgMissLatency::total        85323                       # average SwapReq miss latency ((Tick/Count))
system.cpu.dcache.SwapReq.mshrMisses::cpu.data            1                       # number of SwapReq MSHR misses (Count)
system.cpu.dcache.SwapReq.mshrMisses::total            1                       # number of SwapReq MSHR misses (Count)
system.cpu.dcache.SwapReq.mshrMissLatency::cpu.data        84609                       # number of SwapReq MSHR miss ticks (Tick)
system.cpu.dcache.SwapReq.mshrMissLatency::total        84609                       # number of SwapReq MSHR miss ticks (Tick)
system.cpu.dcache.SwapReq.mshrMissRate::cpu.data     0.007194                       # mshr miss rate for SwapReq accesses (Ratio)
system.cpu.dcache.SwapReq.mshrMissRate::total     0.007194                       # mshr miss rate for SwapReq accesses (Ratio)
system.cpu.dcache.SwapReq.avgMshrMissLatency::cpu.data        84609                       # average SwapReq mshr miss latency ((Tick/Count))
system.cpu.dcache.SwapReq.avgMshrMissLatency::total        84609                       # average SwapReq mshr miss latency ((Tick/Count))
system.cpu.dcache.WriteLineReq.misses::cpu.data         5456                       # number of WriteLineReq misses (Count)
system.cpu.dcache.WriteLineReq.misses::total         5456                       # number of WriteLineReq misses (Count)
system.cpu.dcache.WriteLineReq.missLatency::cpu.data     60108804                       # number of WriteLineReq miss ticks (Tick)
system.cpu.dcache.WriteLineReq.missLatency::total     60108804                       # number of WriteLineReq miss ticks (Tick)
system.cpu.dcache.WriteLineReq.accesses::cpu.data         5456                       # number of WriteLineReq accesses(hits+misses) (Count)
system.cpu.dcache.WriteLineReq.accesses::total         5456                       # number of WriteLineReq accesses(hits+misses) (Count)
system.cpu.dcache.WriteLineReq.missRate::cpu.data            1                       # miss rate for WriteLineReq accesses (Ratio)
system.cpu.dcache.WriteLineReq.missRate::total            1                       # miss rate for WriteLineReq accesses (Ratio)
system.cpu.dcache.WriteLineReq.avgMissLatency::cpu.data 11017.009531                       # average WriteLineReq miss latency ((Tick/Count))
system.cpu.dcache.WriteLineReq.avgMissLatency::total 11017.009531                       # average WriteLineReq miss latency ((Tick/Count))
system.cpu.dcache.WriteLineReq.mshrMisses::cpu.data         5456                       # number of WriteLineReq MSHR misses (Count)
system.cpu.dcache.WriteLineReq.mshrMisses::total         5456                       # number of WriteLineReq MSHR misses (Count)
system.cpu.dcache.WriteLineReq.mshrMissLatency::cpu.data     56213220                       # number of WriteLineReq MSHR miss ticks (Tick)
system.cpu.dcache.WriteLineReq.mshrMissLatency::total     56213220                       # number of WriteLineReq MSHR miss ticks (Tick)
system.cpu.dcache.WriteLineReq.mshrMissRate::cpu.data            1                       # mshr miss rate for WriteLineReq accesses (Ratio)
system.cpu.dcache.WriteLineReq.mshrMissRate::total            1                       # mshr miss rate for WriteLineReq accesses (Ratio)
system.cpu.dcache.WriteLineReq.avgMshrMissLatency::cpu.data 10303.009531                       # average WriteLineReq mshr miss latency ((Tick/Count))
system.cpu.dcache.WriteLineReq.avgMshrMissLatency::total 10303.009531                       # average WriteLineReq mshr miss latency ((Tick/Count))
system.cpu.dcache.WriteReq.hits::cpu.data    241714997                       # number of WriteReq hits (Count)
system.cpu.dcache.WriteReq.hits::total      241714997                       # number of WriteReq hits (Count)
system.cpu.dcache.WriteReq.misses::cpu.data        91428                       # number of WriteReq misses (Count)
system.cpu.dcache.WriteReq.misses::total        91428                       # number of WriteReq misses (Count)
system.cpu.dcache.WriteReq.missLatency::cpu.data   6407456706                       # number of WriteReq miss ticks (Tick)
system.cpu.dcache.WriteReq.missLatency::total   6407456706                       # number of WriteReq miss ticks (Tick)
system.cpu.dcache.WriteReq.accesses::cpu.data    241806425                       # number of WriteReq accesses(hits+misses) (Count)
system.cpu.dcache.WriteReq.accesses::total    241806425                       # number of WriteReq accesses(hits+misses) (Count)
system.cpu.dcache.WriteReq.missRate::cpu.data     0.000378                       # miss rate for WriteReq accesses (Ratio)
system.cpu.dcache.WriteReq.missRate::total     0.000378                       # miss rate for WriteReq accesses (Ratio)
system.cpu.dcache.WriteReq.avgMissLatency::cpu.data 70081.995734                       # average WriteReq miss latency ((Tick/Count))
system.cpu.dcache.WriteReq.avgMissLatency::total 70081.995734                       # average WriteReq miss latency ((Tick/Count))
system.cpu.dcache.WriteReq.mshrMisses::cpu.data        91428                       # number of WriteReq MSHR misses (Count)
system.cpu.dcache.WriteReq.mshrMisses::total        91428                       # number of WriteReq MSHR misses (Count)
system.cpu.dcache.WriteReq.mshrMissLatency::cpu.data   6342177114                       # number of WriteReq MSHR miss ticks (Tick)
system.cpu.dcache.WriteReq.mshrMissLatency::total   6342177114                       # number of WriteReq MSHR miss ticks (Tick)
system.cpu.dcache.WriteReq.mshrMissRate::cpu.data     0.000378                       # mshr miss rate for WriteReq accesses (Ratio)
system.cpu.dcache.WriteReq.mshrMissRate::total     0.000378                       # mshr miss rate for WriteReq accesses (Ratio)
system.cpu.dcache.WriteReq.avgMshrMissLatency::cpu.data 69367.995734                       # average WriteReq mshr miss latency ((Tick/Count))
system.cpu.dcache.WriteReq.avgMshrMissLatency::total 69367.995734                       # average WriteReq mshr miss latency ((Tick/Count))
system.cpu.dcache.power_state.pwrStateResidencyTicks::UNDEFINED 1737994892067                       # Cumulative time (in ticks) in various power states (Tick)
system.cpu.dcache.tags.tagsInUse           511.931745                       # Average ticks per tags in use ((Tick/Count))
system.cpu.dcache.tags.totalRefs            514426870                       # Total number of references to valid blocks. (Count)
system.cpu.dcache.tags.sampledRefs             590004                       # Sample count of references to valid blocks. (Count)
system.cpu.dcache.tags.avgRefs             871.904038                       # Average number of references to valid blocks. ((Count/Count))
system.cpu.dcache.tags.warmupTick              180999                       # The tick when the warmup percentage was hit. (Tick)
system.cpu.dcache.tags.occupancies::cpu.data   511.931745                       # Average occupied blocks per tick, per requestor ((Count/Tick))
system.cpu.dcache.tags.avgOccs::cpu.data     0.999867                       # Average percentage of cache occupancy ((Ratio/Tick))
system.cpu.dcache.tags.avgOccs::total        0.999867                       # Average percentage of cache occupancy ((Ratio/Tick))
system.cpu.dcache.tags.occupanciesTaskId::1024          512                       # Occupied blocks per task id (Count)
system.cpu.dcache.tags.ageTaskId_1024::0           36                       # Occupied blocks per task id, per block age (Count)
system.cpu.dcache.tags.ageTaskId_1024::1          476                       # Occupied blocks per task id, per block age (Count)
system.cpu.dcache.tags.ratioOccsTaskId::1024            1                       # Ratio of occupied blocks and all blocks, per task id (Ratio)
system.cpu.dcache.tags.tagAccesses         2058297484                       # Number of tag accesses (Count)
system.cpu.dcache.tags.dataAccesses        2058297484                       # Number of data accesses (Count)
system.cpu.dcache.tags.power_state.pwrStateResidencyTicks::UNDEFINED 1737994892067                       # Cumulative time (in ticks) in various power states (Tick)
system.cpu.exec_context.thread_0.numMatAluAccesses            0                       # Number of matrix alu accesses (Count)
system.cpu.exec_context.thread_0.numCallsReturns     80680903                       # Number of times a function call or return occured (Count)
system.cpu.exec_context.thread_0.numMatInsts            0                       # Number of matrix instructions (Count)
system.cpu.exec_context.thread_0.numIdleCycles     0.002801                       # Number of idle cycles (Cycle)
system.cpu.exec_context.thread_0.numBusyCycles 4868333030.997199                       # Number of busy cycles (Cycle)
system.cpu.exec_context.thread_0.notIdleFraction     1.000000                       # Percentage of non-idle cycles (Ratio)
system.cpu.exec_context.thread_0.idleFraction     0.000000                       # Percentage of idle cycles (Ratio)
system.cpu.executeStats0.numInsts                   0                       # Number of executed instructions (Count)
system.cpu.executeStats0.numNop                     0                       # Number of nop insts executed (Count)
system.cpu.executeStats0.numBranches                0                       # Number of branches executed (Count)
system.cpu.executeStats0.numLoadInsts               0                       # Number of load instructions executed (Count)
system.cpu.executeStats0.numStoreInsts      510639966                       # Number of stores executed (Count)
system.cpu.executeStats0.instRate                   0                       # Inst execution rate ((Count/Cycle))
system.cpu.executeStats0.numFpRegWrites             0                       # Number of times the floating registers were written (Count)
system.cpu.executeStats0.numIntAluAccesses   1335070832                       # Number of integer alu accesses (Count)
system.cpu.executeStats0.numIntRegReads    1570366372                       # Number of times the integer registers were read (Count)
system.cpu.executeStats0.numIntRegWrites    981306666                       # Number of times the integer registers were written (Count)
system.cpu.executeStats0.numMemRefs         510639966                       # Number of memory refs (Count)
system.cpu.executeStats0.numMiscRegReads     66908877                       # Number of times the Misc registers were read (Count)
system.cpu.executeStats0.numMiscRegWrites      9610679                       # Number of times the Misc registers were written (Count)
system.cpu.executeStats0.numVecAluAccesses     28076926                       # Number of vector alu accesses (Count)
system.cpu.executeStats0.numVecRegReads      35990380                       # Number of times the vector registers were read (Count)
system.cpu.executeStats0.numVecRegWrites     25323732                       # Number of times the vector registers were written (Count)
system.cpu.executeStats0.numDiscardedOps            0                       # Number of ops (including micro ops) which were discarded before commit (Count)
system.cpu.fetchStats0.numInsts            1168332936                       # Number of instructions fetched (thread level) (Count)
system.cpu.fetchStats0.numOps              1449068519                       # Number of ops (including micro ops) fetched (thread level) (Count)
system.cpu.fetchStats0.fetchRate             0.239986                       # Number of inst fetches per cycle ((Count/Cycle))
system.cpu.fetchStats0.numBranches          232135184                       # Number of branches fetched (Count)
system.cpu.fetchStats0.branchRate            0.047683                       # Number of branch fetches per cycle (Ratio)
system.cpu.fetchStats0.numFetchSuspends             0                       # Number of times Execute suspended instruction fetching (Count)
system.cpu.icache.demandHits::cpu.inst     1166930373                       # number of demand (read+write) hits (Count)
system.cpu.icache.demandHits::total        1166930373                       # number of demand (read+write) hits (Count)
system.cpu.icache.overallHits::cpu.inst    1166930373                       # number of overall hits (Count)
system.cpu.icache.overallHits::total       1166930373                       # number of overall hits (Count)
system.cpu.icache.demandMisses::cpu.inst      1403593                       # number of demand (read+write) misses (Count)
system.cpu.icache.demandMisses::total         1403593                       # number of demand (read+write) misses (Count)
system.cpu.icache.overallMisses::cpu.inst      1403593                       # number of overall misses (Count)
system.cpu.icache.overallMisses::total        1403593                       # number of overall misses (Count)
system.cpu.icache.demandMissLatency::cpu.inst  13163576391                       # number of demand (read+write) miss ticks (Tick)
system.cpu.icache.demandMissLatency::total  13163576391                       # number of demand (read+write) miss ticks (Tick)
system.cpu.icache.overallMissLatency::cpu.inst  13163576391                       # number of overall miss ticks (Tick)
system.cpu.icache.overallMissLatency::total  13163576391                       # number of overall miss ticks (Tick)
system.cpu.icache.demandAccesses::cpu.inst   1168333966                       # number of demand (read+write) accesses (Count)
system.cpu.icache.demandAccesses::total    1168333966                       # number of demand (read+write) accesses (Count)
system.cpu.icache.overallAccesses::cpu.inst   1168333966                       # number of overall (read+write) accesses (Count)
system.cpu.icache.overallAccesses::total   1168333966                       # number of overall (read+write) accesses (Count)
system.cpu.icache.demandMissRate::cpu.inst     0.001201                       # miss rate for demand accesses (Ratio)
system.cpu.icache.demandMissRate::total      0.001201                       # miss rate for demand accesses (Ratio)
system.cpu.icache.overallMissRate::cpu.inst     0.001201                       # miss rate for overall accesses (Ratio)
system.cpu.icache.overallMissRate::total     0.001201                       # miss rate for overall accesses (Ratio)
system.cpu.icache.demandAvgMissLatency::cpu.inst  9378.485352                       # average overall miss latency in ticks ((Tick/Count))
system.cpu.icache.demandAvgMissLatency::total  9378.485352                       # average overall miss latency in ticks ((Tick/Count))
system.cpu.icache.overallAvgMissLatency::cpu.inst  9378.485352                       # average overall miss latency ((Tick/Count))
system.cpu.icache.overallAvgMissLatency::total  9378.485352                       # average overall miss latency ((Tick/Count))
system.cpu.icache.blockedCycles::no_mshrs            0                       # number of cycles access was blocked (Cycle)
system.cpu.icache.blockedCycles::no_targets            0                       # number of cycles access was blocked (Cycle)
system.cpu.icache.blockedCauses::no_mshrs            0                       # number of times access was blocked (Count)
system.cpu.icache.blockedCauses::no_targets            0                       # number of times access was blocked (Count)
system.cpu.icache.avgBlocked::no_mshrs            nan                       # average number of cycles each access was blocked ((Cycle/Count))
system.cpu.icache.avgBlocked::no_targets          nan                       # average number of cycles each access was blocked ((Cycle/Count))
system.cpu.icache.demandMshrMisses::cpu.inst      1403593                       # number of demand (read+write) MSHR misses (Count)
system.cpu.icache.demandMshrMisses::total      1403593                       # number of demand (read+write) MSHR misses (Count)
system.cpu.icache.overallMshrMisses::cpu.inst      1403593                       # number of overall MSHR misses (Count)
system.cpu.icache.overallMshrMisses::total      1403593                       # number of overall MSHR misses (Count)
system.cpu.icache.demandMshrMissLatency::cpu.inst  12161410989                       # number of demand (read+write) MSHR miss ticks (Tick)
system.cpu.icache.demandMshrMissLatency::total  12161410989                       # number of demand (read+write) MSHR miss ticks (Tick)
system.cpu.icache.overallMshrMissLatency::cpu.inst  12161410989                       # number of overall MSHR miss ticks (Tick)
system.cpu.icache.overallMshrMissLatency::total  12161410989                       # number of overall MSHR miss ticks (Tick)
system.cpu.icache.demandMshrMissRate::cpu.inst     0.001201                       # mshr miss ratio for demand accesses (Ratio)
system.cpu.icache.demandMshrMissRate::total     0.001201                       # mshr miss ratio for demand accesses (Ratio)
system.cpu.icache.overallMshrMissRate::cpu.inst     0.001201                       # mshr miss ratio for overall accesses (Ratio)
system.cpu.icache.overallMshrMissRate::total     0.001201                       # mshr miss ratio for overall accesses (Ratio)
system.cpu.icache.demandAvgMshrMissLatency::cpu.inst  8664.485352                       # average overall mshr miss latency ((Tick/Count))
system.cpu.icache.demandAvgMshrMissLatency::total  8664.485352                       # average overall mshr miss latency ((Tick/Count))
system.cpu.icache.overallAvgMshrMissLatency::cpu.inst  8664.485352                       # average overall mshr miss latency ((Tick/Count))
system.cpu.icache.overallAvgMshrMissLatency::total  8664.485352                       # average overall mshr miss latency ((Tick/Count))
system.cpu.icache.replacements                1403081                       # number of replacements (Count)
system.cpu.icache.ReadReq.hits::cpu.inst   1166930373                       # number of ReadReq hits (Count)
system.cpu.icache.ReadReq.hits::total      1166930373                       # number of ReadReq hits (Count)
system.cpu.icache.ReadReq.misses::cpu.inst      1403593                       # number of ReadReq misses (Count)
system.cpu.icache.ReadReq.misses::total       1403593                       # number of ReadReq misses (Count)
system.cpu.icache.ReadReq.missLatency::cpu.inst  13163576391                       # number of ReadReq miss ticks (Tick)
system.cpu.icache.ReadReq.missLatency::total  13163576391                       # number of ReadReq miss ticks (Tick)
system.cpu.icache.ReadReq.accesses::cpu.inst   1168333966                       # number of ReadReq accesses(hits+misses) (Count)
system.cpu.icache.ReadReq.accesses::total   1168333966                       # number of ReadReq accesses(hits+misses) (Count)
system.cpu.icache.ReadReq.missRate::cpu.inst     0.001201                       # miss rate for ReadReq accesses (Ratio)
system.cpu.icache.ReadReq.missRate::total     0.001201                       # miss rate for ReadReq accesses (Ratio)
system.cpu.icache.ReadReq.avgMissLatency::cpu.inst  9378.485352                       # average ReadReq miss latency ((Tick/Count))
system.cpu.icache.ReadReq.avgMissLatency::total  9378.485352                       # average ReadReq miss latency ((Tick/Count))
system.cpu.icache.ReadReq.mshrMisses::cpu.inst      1403593                       # number of ReadReq MSHR misses (Count)
system.cpu.icache.ReadReq.mshrMisses::total      1403593                       # number of ReadReq MSHR misses (Count)
system.cpu.icache.ReadReq.mshrMissLatency::cpu.inst  12161410989                       # number of ReadReq MSHR miss ticks (Tick)
system.cpu.icache.ReadReq.mshrMissLatency::total  12161410989                       # number of ReadReq MSHR miss ticks (Tick)
system.cpu.icache.ReadReq.mshrMissRate::cpu.inst     0.001201                       # mshr miss rate for ReadReq accesses (Ratio)
system.cpu.icache.ReadReq.mshrMissRate::total     0.001201                       # mshr miss rate for ReadReq accesses (Ratio)
system.cpu.icache.ReadReq.avgMshrMissLatency::cpu.inst  8664.485352                       # average ReadReq mshr miss latency ((Tick/Count))
system.cpu.icache.ReadReq.avgMshrMissLatency::total  8664.485352                       # average ReadReq mshr miss latency ((Tick/Count))
system.cpu.icache.power_state.pwrStateResidencyTicks::UNDEFINED 1737994892067                       # Cumulative time (in ticks) in various power states (Tick)
system.cpu.icache.tags.tagsInUse           509.952043                       # Average ticks per tags in use ((Tick/Count))
system.cpu.icache.tags.totalRefs           1168333966                       # Total number of references to valid blocks. (Count)
system.cpu.icache.tags.sampledRefs            1403593                       # Sample count of references to valid blocks. (Count)
system.cpu.icache.tags.avgRefs             832.387997                       # Average number of references to valid blocks. ((Count/Count))
system.cpu.icache.tags.warmupTick               91392                       # The tick when the warmup percentage was hit. (Tick)
system.cpu.icache.tags.occupancies::cpu.inst   509.952043                       # Average occupied blocks per tick, per requestor ((Count/Tick))
system.cpu.icache.tags.avgOccs::cpu.inst     0.996000                       # Average percentage of cache occupancy ((Ratio/Tick))
system.cpu.icache.tags.avgOccs::total        0.996000                       # Average percentage of cache occupancy ((Ratio/Tick))
system.cpu.icache.tags.occupanciesTaskId::1024          512                       # Occupied blocks per task id (Count)
system.cpu.icache.tags.ageTaskId_1024::0           59                       # Occupied blocks per task id, per block age (Count)
system.cpu.icache.tags.ageTaskId_1024::1           50                       # Occupied blocks per task id, per block age (Count)
system.cpu.icache.tags.ageTaskId_1024::2           13                       # Occupied blocks per task id, per block age (Count)
system.cpu.icache.tags.ageTaskId_1024::3           34                       # Occupied blocks per task id, per block age (Count)
system.cpu.icache.tags.ageTaskId_1024::4          356                       # Occupied blocks per task id, per block age (Count)
system.cpu.icache.tags.ratioOccsTaskId::1024            1                       # Ratio of occupied blocks and all blocks, per task id (Ratio)
system.cpu.icache.tags.tagAccesses         4674739457                       # Number of tag accesses (Count)
system.cpu.icache.tags.dataAccesses        4674739457                       # Number of data accesses (Count)
system.cpu.icache.tags.power_state.pwrStateResidencyTicks::UNDEFINED 1737994892067                       # Cumulative time (in ticks) in various power states (Tick)
system.cpu.mmu.alignFaults                          0                       # Number of MMU faults due to alignment restrictions (Count)
system.cpu.mmu.prefetchFaults                       0                       # Number of MMU faults due to prefetch (Count)
system.cpu.mmu.domainFaults                         0                       # Number of MMU faults due to domain restrictions (Count)
system.cpu.mmu.permsFaults                          0                       # Number of MMU faults due to permissions restrictions (Count)
system.cpu.mmu.dtb.readHits                         0                       # Read hits (Count)
system.cpu.mmu.dtb.readMisses                       0                       # Read misses (Count)
system.cpu.mmu.dtb.writeHits                        0                       # Write hits (Count)
system.cpu.mmu.dtb.writeMisses                      0                       # Write misses (Count)
system.cpu.mmu.dtb.inserts                          0                       # Number of times an entry is inserted into the TLB (Count)
system.cpu.mmu.dtb.flushTlb                         6                       # Number of times a TLB invalidation was requested (Count)
system.cpu.mmu.dtb.flushedEntries                   0                       # Number of entries that have been flushed from TLB (Count)
system.cpu.mmu.dtb.readAccesses                     0                       # Read accesses (Count)
system.cpu.mmu.dtb.writeAccesses                    0                       # Write accesses (Count)
system.cpu.mmu.dtb.hits                             0                       # Total TLB (inst and data) hits (Count)
system.cpu.mmu.dtb.misses                           0                       # Total TLB (inst and data) misses (Count)
system.cpu.mmu.dtb.accesses                         0                       # Total TLB (inst and data) accesses (Count)
system.cpu.mmu.dtb_walker.walks                     0                       # Table walker walks requested (Count)
system.cpu.mmu.dtb_walker.requestOrigin_Requested::Data            0                       # Table walker requests started/completed, data/inst (Count)
system.cpu.mmu.dtb_walker.requestOrigin_Requested::Inst            0                       # Table walker requests started/completed, data/inst (Count)
system.cpu.mmu.dtb_walker.requestOrigin_Requested::total            0                       # Table walker requests started/completed, data/inst (Count)
system.cpu.mmu.dtb_walker.requestOrigin_Completed::Data            0                       # Table walker requests started/completed, data/inst (Count)
system.cpu.mmu.dtb_walker.requestOrigin_Completed::Inst            0                       # Table walker requests started/completed, data/inst (Count)
system.cpu.mmu.dtb_walker.requestOrigin_Completed::total            0                       # Table walker requests started/completed, data/inst (Count)
system.cpu.mmu.dtb_walker.requestOrigin::total            0                       # Table walker requests started/completed, data/inst (Count)
system.cpu.mmu.dtb_walker.power_state.pwrStateResidencyTicks::UNDEFINED 1737994892067                       # Cumulative time (in ticks) in various power states (Tick)
system.cpu.mmu.itb.instHits                         0                       # Inst hits (Count)
system.cpu.mmu.itb.instMisses                       0                       # Inst misses (Count)
system.cpu.mmu.itb.inserts                          0                       # Number of times an entry is inserted into the TLB (Count)
system.cpu.mmu.itb.flushTlb                         6                       # Number of times a TLB invalidation was requested (Count)
system.cpu.mmu.itb.flushedEntries                   0                       # Number of entries that have been flushed from TLB (Count)
system.cpu.mmu.itb.instAccesses                     0                       # Inst accesses (Count)
system.cpu.mmu.itb.hits                             0                       # Total TLB (inst and data) hits (Count)
system.cpu.mmu.itb.misses                           0                       # Total TLB (inst and data) misses (Count)
system.cpu.mmu.itb.accesses                         0                       # Total TLB (inst and data) accesses (Count)
system.cpu.mmu.itb_walker.walks                     0                       # Table walker walks requested (Count)
system.cpu.mmu.itb_walker.requestOrigin_Requested::Data            0                       # Table walker requests started/completed, data/inst (Count)
system.cpu.mmu.itb_walker.requestOrigin_Requested::Inst            0                       # Table walker requests started/completed, data/inst (Count)
system.cpu.mmu.itb_walker.requestOrigin_Requested::total            0                       # Table walker requests started/completed, data/inst (Count)
system.cpu.mmu.itb_walker.requestOrigin_Completed::Data            0                       # Table walker requests started/completed, data/inst (Count)
system.cpu.mmu.itb_walker.requestOrigin_Completed::Inst            0                       # Table walker requests started/completed, data/inst (Count)
system.cpu.mmu.itb_walker.requestOrigin_Completed::total            0                       # Table walker requests started/completed, data/inst (Count)
system.cpu.mmu.itb_walker.requestOrigin::total            0                       # Table walker requests started/completed, data/inst (Count)
system.cpu.mmu.itb_walker.power_state.pwrStateResidencyTicks::UNDEFINED 1737994892067                       # Cumulative time (in ticks) in various power states (Tick)
system.cpu.mmu.l2_shared.instHits                   0                       # Inst hits (Count)
system.cpu.mmu.l2_shared.instMisses                 0                       # Inst misses (Count)
system.cpu.mmu.l2_shared.inserts                    0                       # Number of times an entry is inserted into the TLB (Count)
system.cpu.mmu.l2_shared.flushTlb                   6                       # Number of times a TLB invalidation was requested (Count)
system.cpu.mmu.l2_shared.flushedEntries             0                       # Number of entries that have been flushed from TLB (Count)
system.cpu.mmu.l2_shared.instAccesses               0                       # Inst accesses (Count)
system.cpu.mmu.l2_shared.hits                       0                       # Total TLB (inst and data) hits (Count)
system.cpu.mmu.l2_shared.misses                     0                       # Total TLB (inst and data) misses (Count)
system.cpu.mmu.l2_shared.accesses                   0                       # Total TLB (inst and data) accesses (Count)
system.cpu.mmu.stage2_dtb.readHits                  0                       # Read hits (Count)
system.cpu.mmu.stage2_dtb.readMisses                0                       # Read misses (Count)
system.cpu.mmu.stage2_dtb.writeHits                 0                       # Write hits (Count)
system.cpu.mmu.stage2_dtb.writeMisses               0                       # Write misses (Count)
system.cpu.mmu.stage2_dtb.inserts                   0                       # Number of times an entry is inserted into the TLB (Count)
system.cpu.mmu.stage2_dtb.flushTlb                  6                       # Number of times a TLB invalidation was requested (Count)
system.cpu.mmu.stage2_dtb.flushedEntries            0                       # Number of entries that have been flushed from TLB (Count)
system.cpu.mmu.stage2_dtb.readAccesses              0                       # Read accesses (Count)
system.cpu.mmu.stage2_dtb.writeAccesses             0                       # Write accesses (Count)
system.cpu.mmu.stage2_dtb.hits                      0                       # Total TLB (inst and data) hits (Count)
system.cpu.mmu.stage2_dtb.misses                    0                       # Total TLB (inst and data) misses (Count)
system.cpu.mmu.stage2_dtb.accesses                  0                       # Total TLB (inst and data) accesses (Count)
system.cpu.mmu.stage2_dtb_walker.walks              0                       # Table walker walks requested (Count)
system.cpu.mmu.stage2_dtb_walker.requestOrigin_Requested::Data            0                       # Table walker requests started/completed, data/inst (Count)
system.cpu.mmu.stage2_dtb_walker.requestOrigin_Requested::Inst            0                       # Table walker requests started/completed, data/inst (Count)
system.cpu.mmu.stage2_dtb_walker.requestOrigin_Requested::total            0                       # Table walker requests started/completed, data/inst (Count)
system.cpu.mmu.stage2_dtb_walker.requestOrigin_Completed::Data            0                       # Table walker requests started/completed, data/inst (Count)
system.cpu.mmu.stage2_dtb_walker.requestOrigin_Completed::Inst            0                       # Table walker requests started/completed, data/inst (Count)
system.cpu.mmu.stage2_dtb_walker.requestOrigin_Completed::total            0                       # Table walker requests started/completed, data/inst (Count)
system.cpu.mmu.stage2_dtb_walker.requestOrigin::total            0                       # Table walker requests started/completed, data/inst (Count)
system.cpu.mmu.stage2_dtb_walker.power_state.pwrStateResidencyTicks::UNDEFINED 1737994892067                       # Cumulative time (in ticks) in various power states (Tick)
system.cpu.mmu.stage2_itb.instHits                  0                       # Inst hits (Count)
system.cpu.mmu.stage2_itb.instMisses                0                       # Inst misses (Count)
system.cpu.mmu.stage2_itb.inserts                   0                       # Number of times an entry is inserted into the TLB (Count)
system.cpu.mmu.stage2_itb.flushTlb                  6                       # Number of times a TLB invalidation was requested (Count)
system.cpu.mmu.stage2_itb.flushedEntries            0                       # Number of entries that have been flushed from TLB (Count)
system.cpu.mmu.stage2_itb.instAccesses              0                       # Inst accesses (Count)
system.cpu.mmu.stage2_itb.hits                      0                       # Total TLB (inst and data) hits (Count)
system.cpu.mmu.stage2_itb.misses                    0                       # Total TLB (inst and data) misses (Count)
system.cpu.mmu.stage2_itb.accesses                  0                       # Total TLB (inst and data) accesses (Count)
system.cpu.mmu.stage2_itb_walker.walks              0                       # Table walker walks requested (Count)
system.cpu.mmu.stage2_itb_walker.requestOrigin_Requested::Data            0                       # Table walker requests started/completed, data/inst (Count)
system.cpu.mmu.stage2_itb_walker.requestOrigin_Requested::Inst            0                       # Table walker requests started/completed, data/inst (Count)
system.cpu.mmu.stage2_itb_walker.requestOrigin_Requested::total            0                       # Table walker requests started/completed, data/inst (Count)
system.cpu.mmu.stage2_itb_walker.requestOrigin_Completed::Data            0                       # Table walker requests started/completed, data/inst (Count)
system.cpu.mmu.stage2_itb_walker.requestOrigin_Completed::Inst            0                       # Table walker requests started/completed, data/inst (Count)
system.cpu.mmu.stage2_itb_walker.requestOrigin_Completed::total            0                       # Table walker requests started/completed, data/inst (Count)
system.cpu.mmu.stage2_itb_walker.requestOrigin::total            0                       # Table walker requests started/completed, data/inst (Count)
system.cpu.mmu.stage2_itb_walker.power_state.pwrStateResidencyTicks::UNDEFINED 1737994892067                       # Cumulative time (in ticks) in various power states (Tick)
system.cpu.power_state.pwrStateResidencyTicks::ON 1737994892067                       # Cumulative time (in ticks) in various power states (Tick)
system.cpu.thread_0.numInsts                        0                       # Number of Instructions committed (Count)
system.cpu.thread_0.numOps                          0                       # Number of Ops committed (Count)
system.cpu.thread_0.numMemRefs                      0                       # Number of Memory References (Count)
system.cpu.workload.numSyscalls                   521                       # Number of system calls (Count)
system.l2bus.transDist::ReadResp              1896712                       # Transaction distribution (Count)
system.l2bus.transDist::WritebackDirty         619603                       # Transaction distribution (Count)
system.l2bus.transDist::CleanEvict            1447300                       # Transaction distribution (Count)
system.l2bus.transDist::ReadExReq               91429                       # Transaction distribution (Count)
system.l2bus.transDist::ReadExResp              91429                       # Transaction distribution (Count)
system.l2bus.transDist::ReadSharedReq         1896712                       # Transaction distribution (Count)
system.l2bus.transDist::InvalidateReq            5456                       # Transaction distribution (Count)
system.l2bus.transDist::InvalidateResp           5456                       # Transaction distribution (Count)
system.l2bus.pktCount_system.cpu.icache.mem_side_port::system.l2cache.cpu_side_port      4210267                       # Packet count per connected requestor and responder (Count)
system.l2bus.pktCount_system.cpu.dcache.mem_side_port::system.l2cache.cpu_side_port      1769500                       # Packet count per connected requestor and responder (Count)
system.l2bus.pktCount::total                  5979767                       # Packet count per connected requestor and responder (Count)
system.l2bus.pktSize_system.cpu.icache.mem_side_port::system.l2cache.cpu_side_port     89829952                       # Cumulative packet size per connected requestor and responder (Byte)
system.l2bus.pktSize_system.cpu.dcache.mem_side_port::system.l2cache.cpu_side_port     72981248                       # Cumulative packet size per connected requestor and responder (Byte)
system.l2bus.pktSize::total                 162811200                       # Cumulative packet size per connected requestor and responder (Byte)
system.l2bus.snoops                             74330                       # Total snoops (Count)
system.l2bus.snoopTraffic                     4084416                       # Total snoop traffic (Byte)
system.l2bus.snoopFanout::samples             2067927                       # Request fanout histogram (Count)
system.l2bus.snoopFanout::mean               0.000461                       # Request fanout histogram (Count)
system.l2bus.snoopFanout::stdev              0.021474                       # Request fanout histogram (Count)
system.l2bus.snoopFanout::underflows                0      0.00%      0.00% # Request fanout histogram (Count)
system.l2bus.snoopFanout::0                   2066973     99.95%     99.95% # Request fanout histogram (Count)
system.l2bus.snoopFanout::1                       954      0.05%    100.00% # Request fanout histogram (Count)
system.l2bus.snoopFanout::2                         0      0.00%    100.00% # Request fanout histogram (Count)
system.l2bus.snoopFanout::overflows                 0      0.00%    100.00% # Request fanout histogram (Count)
system.l2bus.snoopFanout::min_value                 0                       # Request fanout histogram (Count)
system.l2bus.snoopFanout::max_value                 1                       # Request fanout histogram (Count)
system.l2bus.snoopFanout::total               2067927                       # Request fanout histogram (Count)
system.l2bus.power_state.pwrStateResidencyTicks::UNDEFINED 1737994892067                       # Cumulative time (in ticks) in various power states (Tick)
system.l2bus.reqLayer0.occupancy           1819892466                       # Layer occupancy (ticks) (Tick)
system.l2bus.reqLayer0.utilization                0.0                       # Layer utilization (Ratio)
system.l2bus.respLayer0.occupancy          1503248103                       # Layer occupancy (ticks) (Tick)
system.l2bus.respLayer0.utilization               0.0                       # Layer utilization (Ratio)
system.l2bus.respLayer1.occupancy           627998700                       # Layer occupancy (ticks) (Tick)
system.l2bus.respLayer1.utilization               0.0                       # Layer utilization (Ratio)
system.l2bus.snoop_filter.totRequests         3986170                       # Total number of requests made to the snoop filter. (Count)
system.l2bus.snoop_filter.hitSingleRequests      1992573                       # Number of requests hitting in the snoop filter with a single holder of the requested data. (Count)
system.l2bus.snoop_filter.hitMultiRequests            1                       # Number of requests hitting in the snoop filter with multiple (>1) holders of the requested data. (Count)
system.l2bus.snoop_filter.totSnoops               953                       # Total number of snoops made to the snoop filter. (Count)
system.l2bus.snoop_filter.hitSingleSnoops          953                       # Number of snoops hitting in the snoop filter with a single holder of the requested data. (Count)
system.l2bus.snoop_filter.hitMultiSnoops            0                       # Number of snoops hitting in the snoop filter with multiple (>1) holders of the requested data. (Count)
system.l2cache.demandHits::cpu.inst           1401924                       # number of demand (read+write) hits (Count)
system.l2cache.demandHits::cpu.data            480066                       # number of demand (read+write) hits (Count)
system.l2cache.demandHits::total              1881990                       # number of demand (read+write) hits (Count)
system.l2cache.overallHits::cpu.inst          1401924                       # number of overall hits (Count)
system.l2cache.overallHits::cpu.data           480066                       # number of overall hits (Count)
system.l2cache.overallHits::total             1881990                       # number of overall hits (Count)
system.l2cache.demandMisses::cpu.inst            1669                       # number of demand (read+write) misses (Count)
system.l2cache.demandMisses::cpu.data          104482                       # number of demand (read+write) misses (Count)
system.l2cache.demandMisses::total             106151                       # number of demand (read+write) misses (Count)
system.l2cache.overallMisses::cpu.inst           1669                       # number of overall misses (Count)
system.l2cache.overallMisses::cpu.data         104482                       # number of overall misses (Count)
system.l2cache.overallMisses::total            106151                       # number of overall misses (Count)
system.l2cache.demandMissLatency::cpu.inst    147934731                       # number of demand (read+write) miss ticks (Tick)
system.l2cache.demandMissLatency::cpu.data   8942616165                       # number of demand (read+write) miss ticks (Tick)
system.l2cache.demandMissLatency::total    9090550896                       # number of demand (read+write) miss ticks (Tick)
system.l2cache.overallMissLatency::cpu.inst    147934731                       # number of overall miss ticks (Tick)
system.l2cache.overallMissLatency::cpu.data   8942616165                       # number of overall miss ticks (Tick)
system.l2cache.overallMissLatency::total   9090550896                       # number of overall miss ticks (Tick)
system.l2cache.demandAccesses::cpu.inst       1403593                       # number of demand (read+write) accesses (Count)
system.l2cache.demandAccesses::cpu.data        584548                       # number of demand (read+write) accesses (Count)
system.l2cache.demandAccesses::total          1988141                       # number of demand (read+write) accesses (Count)
system.l2cache.overallAccesses::cpu.inst      1403593                       # number of overall (read+write) accesses (Count)
system.l2cache.overallAccesses::cpu.data       584548                       # number of overall (read+write) accesses (Count)
system.l2cache.overallAccesses::total         1988141                       # number of overall (read+write) accesses (Count)
system.l2cache.demandMissRate::cpu.inst      0.001189                       # miss rate for demand accesses (Ratio)
system.l2cache.demandMissRate::cpu.data      0.178740                       # miss rate for demand accesses (Ratio)
system.l2cache.demandMissRate::total         0.053392                       # miss rate for demand accesses (Ratio)
system.l2cache.overallMissRate::cpu.inst     0.001189                       # miss rate for overall accesses (Ratio)
system.l2cache.overallMissRate::cpu.data     0.178740                       # miss rate for overall accesses (Ratio)
system.l2cache.overallMissRate::total        0.053392                       # miss rate for overall accesses (Ratio)
system.l2cache.demandAvgMissLatency::cpu.inst 88636.747154                       # average overall miss latency in ticks ((Tick/Count))
system.l2cache.demandAvgMissLatency::cpu.data 85590.017084                       # average overall miss latency in ticks ((Tick/Count))
system.l2cache.demandAvgMissLatency::total 85637.920472                       # average overall miss latency in ticks ((Tick/Count))
system.l2cache.overallAvgMissLatency::cpu.inst 88636.747154                       # average overall miss latency ((Tick/Count))
system.l2cache.overallAvgMissLatency::cpu.data 85590.017084                       # average overall miss latency ((Tick/Count))
system.l2cache.overallAvgMissLatency::total 85637.920472                       # average overall miss latency ((Tick/Count))
system.l2cache.blockedCycles::no_mshrs              0                       # number of cycles access was blocked (Cycle)
system.l2cache.blockedCycles::no_targets            0                       # number of cycles access was blocked (Cycle)
system.l2cache.blockedCauses::no_mshrs              0                       # number of times access was blocked (Count)
system.l2cache.blockedCauses::no_targets            0                       # number of times access was blocked (Count)
system.l2cache.avgBlocked::no_mshrs               nan                       # average number of cycles each access was blocked ((Cycle/Count))
system.l2cache.avgBlocked::no_targets             nan                       # average number of cycles each access was blocked ((Cycle/Count))
system.l2cache.writebacks::writebacks           63819                       # number of writebacks (Count)
system.l2cache.writebacks::total                63819                       # number of writebacks (Count)
system.l2cache.demandMshrMisses::cpu.inst         1669                       # number of demand (read+write) MSHR misses (Count)
system.l2cache.demandMshrMisses::cpu.data       104482                       # number of demand (read+write) MSHR misses (Count)
system.l2cache.demandMshrMisses::total         106151                       # number of demand (read+write) MSHR misses (Count)
system.l2cache.overallMshrMisses::cpu.inst         1669                       # number of overall MSHR misses (Count)
system.l2cache.overallMshrMisses::cpu.data       104482                       # number of overall MSHR misses (Count)
system.l2cache.overallMshrMisses::total        106151                       # number of overall MSHR misses (Count)
system.l2cache.demandMshrMissLatency::cpu.inst    136018071                       # number of demand (read+write) MSHR miss ticks (Tick)
system.l2cache.demandMshrMissLatency::cpu.data   8196614685                       # number of demand (read+write) MSHR miss ticks (Tick)
system.l2cache.demandMshrMissLatency::total   8332632756                       # number of demand (read+write) MSHR miss ticks (Tick)
system.l2cache.overallMshrMissLatency::cpu.inst    136018071                       # number of overall MSHR miss ticks (Tick)
system.l2cache.overallMshrMissLatency::cpu.data   8196614685                       # number of overall MSHR miss ticks (Tick)
system.l2cache.overallMshrMissLatency::total   8332632756                       # number of overall MSHR miss ticks (Tick)
system.l2cache.demandMshrMissRate::cpu.inst     0.001189                       # mshr miss ratio for demand accesses (Ratio)
system.l2cache.demandMshrMissRate::cpu.data     0.178740                       # mshr miss ratio for demand accesses (Ratio)
system.l2cache.demandMshrMissRate::total     0.053392                       # mshr miss ratio for demand accesses (Ratio)
system.l2cache.overallMshrMissRate::cpu.inst     0.001189                       # mshr miss ratio for overall accesses (Ratio)
system.l2cache.overallMshrMissRate::cpu.data     0.178740                       # mshr miss ratio for overall accesses (Ratio)
system.l2cache.overallMshrMissRate::total     0.053392                       # mshr miss ratio for overall accesses (Ratio)
system.l2cache.demandAvgMshrMissLatency::cpu.inst 81496.747154                       # average overall mshr miss latency ((Tick/Count))
system.l2cache.demandAvgMshrMissLatency::cpu.data 78450.017084                       # average overall mshr miss latency ((Tick/Count))
system.l2cache.demandAvgMshrMissLatency::total 78497.920472                       # average overall mshr miss latency ((Tick/Count))
system.l2cache.overallAvgMshrMissLatency::cpu.inst 81496.747154                       # average overall mshr miss latency ((Tick/Count))
system.l2cache.overallAvgMshrMissLatency::cpu.data 78450.017084                       # average overall mshr miss latency ((Tick/Count))
system.l2cache.overallAvgMshrMissLatency::total 78497.920472                       # average overall mshr miss latency ((Tick/Count))
system.l2cache.replacements                     74330                       # number of replacements (Count)
system.l2cache.CleanEvict.mshrMisses::writebacks          563                       # number of CleanEvict MSHR misses (Count)
system.l2cache.CleanEvict.mshrMisses::total          563                       # number of CleanEvict MSHR misses (Count)
system.l2cache.CleanEvict.mshrMissRate::writebacks          inf                       # mshr miss rate for CleanEvict accesses (Ratio)
system.l2cache.CleanEvict.mshrMissRate::total          inf                       # mshr miss rate for CleanEvict accesses (Ratio)
system.l2cache.InvalidateReq.hits::cpu.data         4509                       # number of InvalidateReq hits (Count)
system.l2cache.InvalidateReq.hits::total         4509                       # number of InvalidateReq hits (Count)
system.l2cache.InvalidateReq.misses::cpu.data          947                       # number of InvalidateReq misses (Count)
system.l2cache.InvalidateReq.misses::total          947                       # number of InvalidateReq misses (Count)
system.l2cache.InvalidateReq.accesses::cpu.data         5456                       # number of InvalidateReq accesses(hits+misses) (Count)
system.l2cache.InvalidateReq.accesses::total         5456                       # number of InvalidateReq accesses(hits+misses) (Count)
system.l2cache.InvalidateReq.missRate::cpu.data     0.173570                       # miss rate for InvalidateReq accesses (Ratio)
system.l2cache.InvalidateReq.missRate::total     0.173570                       # miss rate for InvalidateReq accesses (Ratio)
system.l2cache.InvalidateReq.mshrMisses::cpu.data          947                       # number of InvalidateReq MSHR misses (Count)
system.l2cache.InvalidateReq.mshrMisses::total          947                       # number of InvalidateReq MSHR misses (Count)
system.l2cache.InvalidateReq.mshrMissLatency::cpu.data      9804291                       # number of InvalidateReq MSHR miss ticks (Tick)
system.l2cache.InvalidateReq.mshrMissLatency::total      9804291                       # number of InvalidateReq MSHR miss ticks (Tick)
system.l2cache.InvalidateReq.mshrMissRate::cpu.data     0.173570                       # mshr miss rate for InvalidateReq accesses (Ratio)
system.l2cache.InvalidateReq.mshrMissRate::total     0.173570                       # mshr miss rate for InvalidateReq accesses (Ratio)
system.l2cache.InvalidateReq.avgMshrMissLatency::cpu.data        10353                       # average InvalidateReq mshr miss latency ((Tick/Count))
system.l2cache.InvalidateReq.avgMshrMissLatency::total        10353                       # average InvalidateReq mshr miss latency ((Tick/Count))
system.l2cache.ReadExReq.hits::cpu.data         19973                       # number of ReadExReq hits (Count)
system.l2cache.ReadExReq.hits::total            19973                       # number of ReadExReq hits (Count)
[...]
system.mem_ctrl.wrPerTurnAround::18              1727     22.28%     99.64% # Writes before turning the bus around for reads (Count)
system.mem_ctrl.wrPerTurnAround::19                26      0.34%     99.97% # Writes before turning the bus around for reads (Count)
system.mem_ctrl.wrPerTurnAround::20                 2      0.03%    100.00% # Writes before turning the bus around for reads (Count)
system.mem_ctrl.wrPerTurnAround::total           7753                       # Writes before turning the bus around for reads (Count)
system.mem_ctrl.bytesReadWrQ                     2592                       # Total number of bytes read from write queue (Byte)
system.mem_ctrl.bytesReadSys                  6793664                       # Total read bytes from the system interface side (Byte)
system.mem_ctrl.bytesWrittenSys               4084416                       # Total written bytes from the system interface side (Byte)
system.mem_ctrl.avgRdBWSys               3908909.07160279                       # Average system read bandwidth in Byte/s ((Byte/Second))
system.mem_ctrl.avgWrBWSys               2350073.65018340                       # Average system write bandwidth in Byte/s ((Byte/Second))
system.mem_ctrl.totGap                   1737994799247                       # Total gap between requests (Tick)
system.mem_ctrl.avgGap                    10225303.28                       # Average gap between requests ((Tick/Count))
system.mem_ctrl.requestorReadBytes::cpu.inst       106816                       # Per-requestor bytes read from memory (Byte)
system.mem_ctrl.requestorReadBytes::cpu.data      6684256                       # Per-requestor bytes read from memory (Byte)
system.mem_ctrl.requestorWriteBytes::writebacks      4083616                       # Per-requestor bytes write to memory (Byte)
system.mem_ctrl.requestorReadRate::cpu.inst 61459.329073725617                       # Per-requestor bytes read from memory rate ((Byte/Second))
system.mem_ctrl.requestorReadRate::cpu.data 3845958.368755850475                       # Per-requestor bytes read from memory rate ((Byte/Second))
system.mem_ctrl.requestorWriteRate::writebacks 2349613.349636113737                       # Per-requestor bytes write to memory rate ((Byte/Second))
system.mem_ctrl.requestorReadAccesses::cpu.inst         3338                       # Per-requestor read serviced memory accesses (Count)
system.mem_ctrl.requestorReadAccesses::cpu.data       208964                       # Per-requestor read serviced memory accesses (Count)
system.mem_ctrl.requestorWriteAccesses::writebacks       127638                       # Per-requestor write serviced memory accesses (Count)
system.mem_ctrl.requestorReadTotalLat::cpu.inst    154018708                       # Per-requestor read total memory access latency (Tick)
system.mem_ctrl.requestorReadTotalLat::cpu.data   9038500468                       # Per-requestor read total memory access latency (Tick)
system.mem_ctrl.requestorWriteTotalLat::writebacks 25537939962394                       # Per-requestor write total memory access latency (Tick)
system.mem_ctrl.requestorReadAvgLat::cpu.inst     46141.01                       # Per-requestor read average memory access latency ((Tick/Count))
system.mem_ctrl.requestorReadAvgLat::cpu.data     43253.86                       # Per-requestor read average memory access latency ((Tick/Count))
system.mem_ctrl.requestorWriteAvgLat::writebacks 200081010.06                       # Per-requestor write average memory access latency ((Tick/Count))
system.mem_ctrl.dram.bytesRead::cpu.inst       106816                       # Number of bytes read from this memory (Byte)
system.mem_ctrl.dram.bytesRead::cpu.data      6686848                       # Number of bytes read from this memory (Byte)
system.mem_ctrl.dram.bytesRead::total         6793664                       # Number of bytes read from this memory (Byte)
system.mem_ctrl.dram.bytesInstRead::cpu.inst       106816                       # Number of instructions bytes read from this memory (Byte)
system.mem_ctrl.dram.bytesInstRead::total       106816                       # Number of instructions bytes read from this memory (Byte)
system.mem_ctrl.dram.bytesWritten::writebacks      4084416                       # Number of bytes written to this memory (Byte)
system.mem_ctrl.dram.bytesWritten::total      4084416                       # Number of bytes written to this memory (Byte)
system.mem_ctrl.dram.numReads::cpu.inst          1669                       # Number of read requests responded to by this memory (Count)
system.mem_ctrl.dram.numReads::cpu.data        104482                       # Number of read requests responded to by this memory (Count)
system.mem_ctrl.dram.numReads::total           106151                       # Number of read requests responded to by this memory (Count)
system.mem_ctrl.dram.numWrites::writebacks        63819                       # Number of write requests responded to by this memory (Count)
system.mem_ctrl.dram.numWrites::total           63819                       # Number of write requests responded to by this memory (Count)
system.mem_ctrl.dram.bwRead::cpu.inst           61459                       # Total read bandwidth from this memory ((Byte/Second))
system.mem_ctrl.dram.bwRead::cpu.data         3847450                       # Total read bandwidth from this memory ((Byte/Second))
system.mem_ctrl.dram.bwRead::total            3908909                       # Total read bandwidth from this memory ((Byte/Second))
system.mem_ctrl.dram.bwInstRead::cpu.inst        61459                       # Instruction read bandwidth from this memory ((Byte/Second))
system.mem_ctrl.dram.bwInstRead::total          61459                       # Instruction read bandwidth from this memory ((Byte/Second))
system.mem_ctrl.dram.bwWrite::writebacks      2350074                       # Write bandwidth from this memory ((Byte/Second))
system.mem_ctrl.dram.bwWrite::total           2350074                       # Write bandwidth from this memory ((Byte/Second))
system.mem_ctrl.dram.bwTotal::writebacks      2350074                       # Total bandwidth to/from this memory ((Byte/Second))
system.mem_ctrl.dram.bwTotal::cpu.inst          61459                       # Total bandwidth to/from this memory ((Byte/Second))
system.mem_ctrl.dram.bwTotal::cpu.data        3847450                       # Total bandwidth to/from this memory ((Byte/Second))
system.mem_ctrl.dram.bwTotal::total           6258983                       # Total bandwidth to/from this memory ((Byte/Second))
system.mem_ctrl.dram.readBursts                212221                       # Number of DRAM read bursts (Count)
system.mem_ctrl.dram.writeBursts               127613                       # Number of DRAM write bursts (Count)
system.mem_ctrl.dram.perBankRdBursts::0         26136                       # Per bank write bursts (Count)
system.mem_ctrl.dram.perBankRdBursts::1         26218                       # Per bank write bursts (Count)
system.mem_ctrl.dram.perBankRdBursts::2         26323                       # Per bank write bursts (Count)
system.mem_ctrl.dram.perBankRdBursts::3         26386                       # Per bank write bursts (Count)
system.mem_ctrl.dram.perBankRdBursts::4         27250                       # Per bank write bursts (Count)
system.mem_ctrl.dram.perBankRdBursts::5         26619                       # Per bank write bursts (Count)
system.mem_ctrl.dram.perBankRdBursts::6         26666                       # Per bank write bursts (Count)
system.mem_ctrl.dram.perBankRdBursts::7         26623                       # Per bank write bursts (Count)
system.mem_ctrl.dram.perBankWrBursts::0         15664                       # Per bank write bursts (Count)
system.mem_ctrl.dram.perBankWrBursts::1         15698                       # Per bank write bursts (Count)
system.mem_ctrl.dram.perBankWrBursts::2         15748                       # Per bank write bursts (Count)
system.mem_ctrl.dram.perBankWrBursts::3         15892                       # Per bank write bursts (Count)
system.mem_ctrl.dram.perBankWrBursts::4         16450                       # Per bank write bursts (Count)
system.mem_ctrl.dram.perBankWrBursts::5         16046                       # Per bank write bursts (Count)
system.mem_ctrl.dram.perBankWrBursts::6         16046                       # Per bank write bursts (Count)
system.mem_ctrl.dram.perBankWrBursts::7         16069                       # Per bank write bursts (Count)
system.mem_ctrl.dram.totQLat               4417546676                       # Total ticks spent queuing (Tick)
system.mem_ctrl.dram.totBusLat             1591657500                       # Total ticks spent in databus transfers (Tick)
system.mem_ctrl.dram.totMemAccLat          9192519176                       # Total ticks spent from burst creation until serviced by the DRAM (Tick)
system.mem_ctrl.dram.avgQLat                 20815.78                       # Average queueing delay per DRAM burst ((Tick/Count))
system.mem_ctrl.dram.avgBusLat                7500.00                       # Average bus latency per DRAM burst ((Tick/Count))
system.mem_ctrl.dram.avgMemAccLat            43315.78                       # Average memory access latency per DRAM burst ((Tick/Count))
system.mem_ctrl.dram.readRowHits               171416                       # Number of row buffer hits during reads (Count)
system.mem_ctrl.dram.writeRowHits              111626                       # Number of row buffer hits during writes (Count)
system.mem_ctrl.dram.readRowHitRate             80.77                       # Row buffer hit rate for reads (Ratio)
system.mem_ctrl.dram.writeRowHitRate            87.47                       # Row buffer hit rate for writes (Ratio)
system.mem_ctrl.dram.bytesPerActivate::samples        56788                       # Bytes accessed per row activation (Byte)
system.mem_ctrl.dram.bytesPerActivate::mean   191.482708                       # Bytes accessed per row activation (Byte)
system.mem_ctrl.dram.bytesPerActivate::gmean   128.878635                       # Bytes accessed per row activation (Byte)
system.mem_ctrl.dram.bytesPerActivate::stdev   172.545829                       # Bytes accessed per row activation (Byte)
system.mem_ctrl.dram.bytesPerActivate::0-63         1364      2.40%      2.40% # Bytes accessed per row activation (Byte)
system.mem_ctrl.dram.bytesPerActivate::64-127        30089     52.98%     55.39% # Bytes accessed per row activation (Byte)
system.mem_ctrl.dram.bytesPerActivate::128-191         4265      7.51%     62.90% # Bytes accessed per row activation (Byte)
system.mem_ctrl.dram.bytesPerActivate::192-255         3107      5.47%     68.37% # Bytes accessed per row activation (Byte)
system.mem_ctrl.dram.bytesPerActivate::256-319         2763      4.87%     73.23% # Bytes accessed per row activation (Byte)
system.mem_ctrl.dram.bytesPerActivate::320-383         2234      3.93%     77.17% # Bytes accessed per row activation (Byte)
system.mem_ctrl.dram.bytesPerActivate::384-447         2203      3.88%     81.05% # Bytes accessed per row activation (Byte)
system.mem_ctrl.dram.bytesPerActivate::448-511         2913      5.13%     86.18% # Bytes accessed per row activation (Byte)
system.mem_ctrl.dram.bytesPerActivate::512-575         7850     13.82%    100.00% # Bytes accessed per row activation (Byte)
system.mem_ctrl.dram.bytesPerActivate::total        56788                       # Bytes accessed per row activation (Byte)
system.mem_ctrl.dram.dramBytesRead            6791072                       # Total bytes read (Byte)
system.mem_ctrl.dram.dramBytesWritten         4083616                       # Total bytes written (Byte)
system.mem_ctrl.dram.avgRdBW                 3.907418                       # Average DRAM read bandwidth in MiBytes/s ((Byte/Second))
system.mem_ctrl.dram.avgWrBW                 2.349613                       # Average DRAM write bandwidth in MiBytes/s ((Byte/Second))
system.mem_ctrl.dram.peakBW                   4266.00                       # Theoretical peak bandwidth in MiByte/s ((Byte/Second))
system.mem_ctrl.dram.busUtil                     0.15                       # Data bus utilization in percentage (Ratio)
system.mem_ctrl.dram.busUtilRead                 0.09                       # Data bus utilization in percentage for reads (Ratio)
system.mem_ctrl.dram.busUtilWrite                0.06                       # Data bus utilization in percentage for writes (Ratio)
system.mem_ctrl.dram.pageHitRate                83.29                       # Row buffer hit rate, read and write combined (Ratio)
system.mem_ctrl.dram.power_state.pwrStateResidencyTicks::UNDEFINED 1737994892067                       # Cumulative time (in ticks) in various power states (Tick)
system.mem_ctrl.dram.rank0.actEnergy     172757515.728010                       # Energy for activate commands per rank (pJ) (Joule)
system.mem_ctrl.dram.rank0.preEnergy     60852385.305586                       # Energy for precharge commands per rank (pJ) (Joule)
system.mem_ctrl.dram.rank0.readEnergy    364524711.297666                       # Energy for read commands per rank (pJ) (Joule)
system.mem_ctrl.dram.rank0.writeEnergy   196788434.136000                       # Energy for write commands per rank (pJ) (Joule)
system.mem_ctrl.dram.rank0.refreshEnergy 12425057164.877745                       # Energy for refresh commands per rank (pJ) (Joule)
system.mem_ctrl.dram.rank0.actBackEnergy 4289964276.685464                       # Energy for active background per rank (pJ) (Joule)
system.mem_ctrl.dram.rank0.preBackEnergy 64629966015.560219                       # Energy for precharge background per rank (pJ) (Joule)
system.mem_ctrl.dram.rank0.actPowerDownEnergy            0                       # Energy for active power-down per rank (pJ) (Joule)
system.mem_ctrl.dram.rank0.prePowerDownEnergy            0                       # Energy for precharge power-down per rank (pJ) (Joule)
system.mem_ctrl.dram.rank0.selfRefreshEnergy            0                       # Energy for self refresh per rank (pJ) (Joule)
system.mem_ctrl.dram.rank0.totalEnergy   82139910504.092026                       # Total energy per rank (pJ) (Joule)
system.mem_ctrl.dram.rank0.averagePower     47.261307                       # Core power per rank (mW) (Watt)
system.mem_ctrl.dram.rank0.totalIdleTime            0                       # Total Idle time Per DRAM Rank (Tick)
system.mem_ctrl.dram.rank0.pwrStateTime::IDLE 1625543962149                       # Time in different power states (Tick)
system.mem_ctrl.dram.rank0.pwrStateTime::REF  58156800000                       # Time in different power states (Tick)
system.mem_ctrl.dram.rank0.pwrStateTime::SREF            0                       # Time in different power states (Tick)
system.mem_ctrl.dram.rank0.pwrStateTime::PRE_PDN            0                       # Time in different power states (Tick)
system.mem_ctrl.dram.rank0.pwrStateTime::ACT  54294129918                       # Time in different power states (Tick)
system.mem_ctrl.dram.rank0.pwrStateTime::ACT_PDN            0                       # Time in different power states (Tick)
system.mem_ctrl.power_state.pwrStateResidencyTicks::UNDEFINED 1737994892067                       # Cumulative time (in ticks) in various power states (Tick)
system.membus.transDist::ReadResp               34695                       # Transaction distribution (Count)
system.membus.transDist::WritebackDirty         63819                       # Transaction distribution (Count)
system.membus.transDist::CleanEvict             10121                       # Transaction distribution (Count)
system.membus.transDist::ReadExReq              71456                       # Transaction distribution (Count)
system.membus.transDist::ReadExResp             71456                       # Transaction distribution (Count)
system.membus.transDist::ReadSharedReq          34695                       # Transaction distribution (Count)
system.membus.transDist::InvalidateReq            947                       # Transaction distribution (Count)
system.membus.pktCount_system.l2cache.mem_side_port::system.mem_ctrl.port       287189                       # Packet count per connected requestor and responder (Count)
system.membus.pktCount::total                  287189                       # Packet count per connected requestor and responder (Count)
system.membus.pktSize_system.l2cache.mem_side_port::system.mem_ctrl.port     10878080                       # Cumulative packet size per connected requestor and responder (Byte)
system.membus.pktSize::total                 10878080                       # Cumulative packet size per connected requestor and responder (Byte)
system.membus.snoops                                0                       # Total snoops (Count)
system.membus.snoopTraffic                          0                       # Total snoop traffic (Byte)
system.membus.snoopFanout::samples             107098                       # Request fanout histogram (Count)
system.membus.snoopFanout::mean                     0                       # Request fanout histogram (Count)
system.membus.snoopFanout::stdev                    0                       # Request fanout histogram (Count)
system.membus.snoopFanout::underflows               0      0.00%      0.00% # Request fanout histogram (Count)
system.membus.snoopFanout::0                   107098    100.00%    100.00% # Request fanout histogram (Count)
system.membus.snoopFanout::1                        0      0.00%    100.00% # Request fanout histogram (Count)
system.membus.snoopFanout::overflows                0      0.00%    100.00% # Request fanout histogram (Count)
system.membus.snoopFanout::min_value                0                       # Request fanout histogram (Count)
system.membus.snoopFanout::max_value                0                       # Request fanout histogram (Count)
system.membus.snoopFanout::total               107098                       # Request fanout histogram (Count)
system.membus.power_state.pwrStateResidencyTicks::UNDEFINED 1737994892067                       # Cumulative time (in ticks) in various power states (Tick)
system.membus.reqLayer0.occupancy           155764098                       # Layer occupancy (ticks) (Tick)
system.membus.reqLayer0.utilization               0.0                       # Layer utilization (Ratio)
system.membus.respLayer0.occupancy          223958586                       # Layer occupancy (ticks) (Tick)
system.membus.respLayer0.utilization              0.0                       # Layer utilization (Ratio)
system.membus.snoop_filter.totRequests         181038                       # Total number of requests made to the snoop filter. (Count)
system.membus.snoop_filter.hitSingleRequests        73940                       # Number of requests hitting in the snoop filter with a single holder of the requested data. (Count)
system.membus.snoop_filter.hitMultiRequests            0                       # Number of requests hitting in the snoop filter with multiple (>1) holders of the requested data. (Count)
system.membus.snoop_filter.totSnoops                0                       # Total number of snoops made to the snoop filter. (Count)
system.membus.snoop_filter.hitSingleSnoops            0                       # Number of snoops hitting in the snoop filter with a single holder of the requested data. (Count)
system.membus.snoop_filter.hitMultiSnoops            0                       # Number of snoops hitting in the snoop filter with multiple (>1) holders of the requested data. (Count)
system.workload.inst.arm                            0                       # number of arm instructions executed (Count)
system.workload.inst.quiesce                        0                       # number of quiesce instructions executed (Count)

---------- End Simulation Statistics   ----------
